*SPEF "ieee 1481-1999"
*DESIGN "adc_core_digital"
*DATE "22:28:55 Wednesday August 13, 2025"
*VENDOR "The OpenROAD Project"
*PROGRAM "OpenROAD"
*VERSION "abdaff9c61303ae8254ffb416eb4793e3a3caa21"
*DESIGN_FLOW "NAME_SCOPE LOCAL" "PIN_CAP NONE"
*DIVIDER /
*DELIMITER :
*BUS_DELIMITER []
*T_UNIT 1 NS
*C_UNIT 1 PF
*R_UNIT 1 OHM
*L_UNIT 1 HENRY

*NAME_MAP
*1 _0000_
*2 _0001_
*3 _0002_
*4 _0003_
*5 _0004_
*6 _0005_
*7 _0006_
*8 _0007_
*9 _0008_
*10 _0009_
*11 _0010_
*12 _0011_
*13 _0012_
*14 _0013_
*15 _0014_
*16 _0015_
*17 _0016_
*18 _0017_
*19 _0018_
*20 _0019_
*21 _0020_
*22 _0021_
*23 _0022_
*24 _0023_
*25 _0024_
*26 _0025_
*27 _0026_
*28 _0027_
*29 _0028_
*30 _0029_
*31 _0030_
*32 _0031_
*33 _0032_
*34 _0033_
*35 _0034_
*36 _0035_
*37 _0036_
*38 _0037_
*39 _0038_
*40 _0039_
*41 _0040_
*42 _0041_
*43 _0042_
*44 _0043_
*45 _0044_
*46 _0045_
*47 _0046_
*48 _0047_
*49 _0048_
*50 _0049_
*51 _0050_
*52 _0051_
*53 _0052_
*54 _0053_
*55 _0054_
*56 _0055_
*57 _0056_
*58 _0057_
*59 _0058_
*60 _0059_
*61 _0060_
*62 _0061_
*63 _0062_
*64 _0063_
*65 _0064_
*66 _0065_
*67 _0066_
*68 _0067_
*69 _0068_
*70 _0069_
*71 _0070_
*72 _0071_
*73 _0072_
*74 _0073_
*75 _0074_
*76 _0075_
*77 _0076_
*78 _0077_
*79 _0078_
*80 _0079_
*81 _0080_
*82 _0081_
*83 _0082_
*84 _0083_
*85 _0084_
*86 _0085_
*87 _0086_
*88 _0087_
*89 _0088_
*90 _0089_
*91 _0090_
*92 _0091_
*93 _0092_
*94 _0093_
*95 _0094_
*96 _0095_
*97 _0096_
*98 _0097_
*99 _0098_
*100 _0099_
*101 _0100_
*102 _0101_
*103 _0102_
*104 _0103_
*105 _0104_
*106 _0105_
*107 _0106_
*108 _0107_
*109 _0108_
*110 _0109_
*111 _0110_
*112 _0111_
*113 _0112_
*114 _0113_
*115 _0114_
*116 _0115_
*117 _0116_
*118 _0117_
*119 _0118_
*120 _0119_
*121 _0120_
*122 _0121_
*123 _0122_
*124 _0123_
*125 _0124_
*126 _0125_
*127 _0126_
*128 _0127_
*129 _0128_
*130 _0129_
*131 _0130_
*132 _0131_
*133 _0132_
*134 _0133_
*135 _0134_
*136 _0135_
*137 _0136_
*138 _0137_
*139 _0138_
*140 _0139_
*141 _0140_
*142 _0141_
*143 _0142_
*144 _0143_
*145 _0144_
*146 _0145_
*147 _0146_
*148 _0147_
*149 _0148_
*150 _0149_
*151 _0150_
*152 _0151_
*153 _0152_
*154 _0153_
*155 _0154_
*156 _0155_
*157 _0156_
*158 _0157_
*159 _0158_
*160 _0159_
*161 _0160_
*162 _0161_
*163 _0162_
*164 _0163_
*165 _0164_
*166 _0165_
*167 _0166_
*168 _0167_
*169 _0168_
*170 _0169_
*171 _0170_
*172 _0171_
*173 _0172_
*174 _0173_
*175 _0174_
*176 _0175_
*177 _0176_
*178 _0177_
*179 _0178_
*180 _0179_
*181 _0180_
*182 a_nmatrix_col_out_n[0]
*183 _0182_
*184 _0183_
*185 _0184_
*186 _0185_
*187 _0186_
*188 _0187_
*189 _0188_
*190 _0189_
*191 _0190_
*192 _0191_
*193 _0192_
*194 _0193_
*195 _0194_
*196 _0195_
*197 _0196_
*198 _0197_
*199 _0198_
*200 _0199_
*201 _0200_
*202 _0201_
*203 _0202_
*204 _0203_
*205 _0204_
*206 _0205_
*207 _0206_
*208 _0207_
*209 _0208_
*210 _0209_
*211 _0210_
*212 _0211_
*213 _0212_
*214 _0213_
*215 _0214_
*216 _0215_
*217 _0216_
*218 _0217_
*219 _0218_
*220 _0219_
*221 _0220_
*222 _0221_
*223 _0222_
*224 _0223_
*225 _0224_
*226 _0225_
*227 _0226_
*228 _0227_
*229 _0228_
*230 _0229_
*231 a_nmatrix_col_out[9]
*232 _0231_
*233 _0232_
*234 _0233_
*235 _0234_
*236 _0235_
*237 _0236_
*238 _0237_
*239 _0238_
*240 _0239_
*241 _0240_
*242 _0241_
*243 _0242_
*244 _0243_
*245 _0244_
*246 _0245_
*247 _0246_
*248 _0247_
*249 _0248_
*250 a_nmatrix_col_out[8]
*251 a_nmatrix_col_out[7]
*252 _0251_
*253 _0252_
*254 _0253_
*255 _0254_
*256 _0255_
*257 _0256_
*258 _0257_
*259 _0258_
*260 _0259_
*261 a_nmatrix_col_out[6]
*262 _0261_
*263 _0262_
*264 _0263_
*265 _0264_
*266 _0265_
*267 _0266_
*268 _0267_
*269 _0268_
*270 _0269_
*271 _0270_
*272 _0271_
*273 _0272_
*274 _0273_
*275 _0274_
*276 _0275_
*277 _0276_
*278 _0277_
*279 _0278_
*280 _0279_
*281 _0280_
*282 _0281_
*283 _0282_
*284 _0283_
*285 _0284_
*286 _0285_
*287 _0286_
*288 _0287_
*289 _0288_
*290 _0289_
*291 _0290_
*292 _0291_
*293 _0292_
*294 _0293_
*295 _0294_
*296 _0295_
*297 _0296_
*298 _0297_
*299 _0298_
*300 _0299_
*301 _0300_
*302 _0301_
*303 _0302_
*304 _0303_
*305 _0304_
*306 _0305_
*307 _0306_
*308 _0307_
*309 _0308_
*310 _0309_
*311 _0310_
*312 _0311_
*313 _0312_
*314 _0313_
*315 _0314_
*316 _0315_
*317 _0316_
*318 a_nmatrix_col_out[5]
*319 _0318_
*320 _0319_
*321 _0320_
*322 _0321_
*323 _0322_
*324 _0323_
*325 _0324_
*326 _0325_
*327 _0326_
*328 _0327_
*329 _0328_
*330 _0329_
*331 _0330_
*332 a_nmatrix_col_out[4]
*333 _0332_
*334 _0333_
*335 _0334_
*336 _0335_
*337 _0336_
*338 _0337_
*339 _0338_
*340 _0339_
*341 _0340_
*342 _0341_
*343 _0342_
*344 _0343_
*345 _0344_
*346 _0345_
*347 _0346_
*348 _0347_
*349 a_nmatrix_col_out[3]
*350 _0349_
*351 _0350_
*352 _0351_
*353 _0352_
*354 _0353_
*355 _0354_
*356 a_nmatrix_col_out[2]
*357 _0356_
*358 _0357_
*359 _0358_
*360 _0359_
*361 _0360_
*362 _0361_
*363 _0362_
*364 _0363_
*365 _0364_
*366 a_nmatrix_col_out[1]
*367 _0366_
*368 _0367_
*369 _0368_
*370 _0369_
*371 _0370_
*372 _0371_
*373 a_nmatrix_col_out[12]
*374 _0373_
*375 a_nmatrix_col_out[11]
*376 a_nmatrix_col_out[10]
*377 _0376_
*378 _0377_
*379 _0378_
*380 _0379_
*381 _0380_
*382 _0381_
*383 a_nmatrix_col_out[0]
*384 _0383_
*385 _0384_
*386 a_nmatrix_bincap_out_n[2]
*387 _0386_
*388 _0387_
*389 _0388_
*390 _0389_
*391 _0390_
*392 _0391_
*393 _0392_
*394 _0393_
*395 _0394_
*396 _0395_
*397 _0396_
*398 _0397_
*399 _0398_
*400 _0399_
*401 _0400_
*402 _0401_
*403 _0402_
*404 _0403_
*405 _0404_
*406 _0405_
*407 _0406_
*408 _0407_
*409 _0408_
*410 _0409_
*411 _0410_
*412 _0411_
*413 _0412_
*414 _0413_
*415 _0414_
*416 _0415_
*417 _0416_
*418 _0417_
*419 _0418_
*420 _0419_
*421 _0420_
*422 _0421_
*423 _0422_
*424 _0423_
*425 _0424_
*426 _0425_
*427 _0426_
*428 _0427_
*429 _0428_
*430 a_nmatrix_bincap_out_n[1]
*431 _0430_
*432 _0431_
*433 _0432_
*434 _0433_
*435 _0434_
*436 _0435_
*437 _0436_
*438 _0437_
*439 _0438_
*440 _0439_
*441 _0440_
*442 _0441_
*443 _0442_
*444 _0443_
*445 _0444_
*446 _0445_
*447 _0446_
*448 _0447_
*449 _0448_
*450 _0449_
*451 _0450_
*452 _0451_
*453 _0452_
*454 _0453_
*455 _0454_
*456 _0455_
*457 _0456_
*458 _0457_
*459 _0458_
*460 a_nmatrix_bincap_out_n[0]
*461 _0460_
*462 _0461_
*463 _0462_
*464 _0463_
*465 _0464_
*466 _0465_
*467 _0466_
*468 _0467_
*469 _0468_
*470 _0469_
*471 _0470_
*472 _0471_
*473 _0472_
*474 _0473_
*475 _0474_
*476 _0475_
*477 _0476_
*478 _0477_
*479 _0478_
*480 _0479_
*481 _0480_
*482 _0481_
*483 _0482_
*484 _0483_
*485 _0484_
*486 _0485_
*487 _0486_
*488 _0487_
*489 _0488_
*490 _0489_
*491 _0490_
*492 _0491_
*493 _0492_
*494 _0493_
*495 _0494_
*496 _0495_
*497 _0496_
*498 _0497_
*499 _0498_
*500 _0499_
*501 _0500_
*502 _0501_
*503 _0502_
*504 _0503_
*505 a_enable_loop_out
*506 _0505_
*507 _0506_
*508 _0507_
*509 _0508_
*510 _0509_
*511 _0510_
*512 _0511_
*513 _0512_
*514 _0513_
*515 _0514_
*516 _0515_
*517 _0516_
*518 _0517_
*519 _0518_
*520 _0519_
*521 _0520_
*522 _0521_
*523 _0522_
*524 _0523_
*525 _0524_
*526 _0525_
*527 _0526_
*528 _0527_
*529 _0528_
*530 _0529_
*531 _0530_
*532 _0531_
*533 _0532_
*534 _0533_
*535 _0534_
*536 _0535_
*537 _0536_
*538 _0537_
*539 _0538_
*540 _0539_
*541 _0540_
*542 _0541_
*543 _0542_
*544 _0543_
*545 _0544_
*546 _0545_
*547 _0546_
*548 _0547_
*549 _0548_
*550 _0549_
*551 _0550_
*552 _0551_
*553 _0552_
*554 _0553_
*555 _0554_
*556 _0555_
*557 _0556_
*558 _0557_
*559 _0558_
*560 _0559_
*561 _0560_
*562 _0561_
*563 a_conv_finished_osr_out
*564 _0563_
*565 _0564_
*566 _0565_
*567 _0566_
*568 _0567_
*569 _0568_
*570 _0569_
*571 _0570_
*572 _0571_
*573 _0572_
*574 _0573_
*575 _0574_
*576 _0575_
*577 _0576_
*578 _0577_
*579 _0578_
*580 _0579_
*581 _0580_
*582 _0581_
*583 _0582_
*584 net10
*585 _0584_
*586 _0585_
*587 _0586_
*588 _0587_
*589 _0588_
*590 _0589_
*591 _0590_
*592 _0591_
*593 _0592_
*594 _0593_
*595 _0594_
*596 _0595_
*597 _0596_
*598 _0597_
*599 net9
*600 _0599_
*601 _0600_
*602 _0601_
*603 net8
*604 _0603_
*605 _0604_
*606 _0605_
*607 _0606_
*608 _0607_
*609 _0608_
*610 _0609_
*611 _0610_
*612 _0611_
*613 _0612_
*614 _0613_
*615 _0614_
*616 _0615_
*617 _0616_
*618 _0617_
*619 _0618_
*620 _0619_
*621 _0620_
*622 _0621_
*623 _0622_
*624 _0623_
*625 _0624_
*627 net7
*628 a_clk_dig_in
*629 a_comparator_in
*630 a_config_1_in[0]
*631 a_config_1_in[1]
*632 a_config_1_in[2]
*633 a_config_1_in[3]
*634 a_config_1_in[4]
*635 a_config_1_in[5]
*636 a_config_1_in[6]
*637 a_config_1_in[7]
*638 a_config_1_in[8]
*639 a_config_1_in[9]
*640 a_config_2_in[0]
*641 a_config_2_in[1]
*642 a_config_2_in[2]
*643 a_config_2_in[3]
*644 a_config_2_in[4]
*645 a_config_2_in[5]
*646 a_config_2_in[6]
*647 a_config_2_in[7]
*648 a_config_2_in[8]
*649 a_config_2_in[9]
*650 net11
*651 net12
*652 net13
*653 net14
*654 net15
*655 a_nmatrix_c0_out_n
*656 net16
*657 net17
*658 net18
*659 net19
*660 net20
*661 net21
*662 net22
*663 net23
*664 net24
*665 net25
*666 net26
*667 net27
*668 net28
*669 net29
*670 net30
*671 net31
*672 net32
*673 net33
*674 net34
*675 net35
*676 net36
*677 net37
*678 net38
*679 net39
*680 net40
*681 net41
*682 net42
*683 net43
*684 net44
*685 net45
*686 net46
*687 net47
*688 net48
*689 net49
*690 net50
*691 net51
*692 net52
*693 net53
*694 net54
*695 net55
*696 net56
*697 net57
*698 net58
*699 net59
*700 clknet_2_0__leaf_a_clk_dig_in
*701 net61
*702 net62
*703 net63
*704 net64
*705 net65
*706 net66
*707 net67
*708 net68
*709 net69
*710 net70
*711 net71
*712 net72
*713 net73
*714 net74
*715 a_pmatrix_c0_out_n
*716 net75
*717 net76
*718 net77
*719 net78
*720 net79
*721 net80
*722 net81
*723 net82
*724 net83
*725 net84
*726 net85
*727 net86
*728 net87
*729 net88
*730 net89
*731 net90
*732 net91
*733 net92
*734 net93
*735 net94
*736 net95
*737 net96
*738 net97
*739 net98
*740 net99
*741 net100
*742 net101
*743 net102
*744 net103
*745 net104
*746 net105
*747 net106
*748 net107
*749 net108
*750 net109
*751 net110
*752 net111
*753 net112
*754 net113
*755 net114
*756 net115
*757 net116
*758 net117
*759 net118
*760 clknet_0_a_clk_dig_in
*761 net120
*762 net121
*763 net122
*764 net123
*765 net124
*766 net125
*767 net126
*768 net127
*769 net128
*770 net129
*771 net130
*772 a_result_out[0]
*773 a_result_out[1]
*774 net131
*775 net132
*776 net133
*777 net134
*778 net135
*779 net136
*780 net137
*781 net138
*782 a_rst_n
*783 net139
*784 clknet_2_3__leaf_a_clk_dig_in
*785 clknet_2_1__leaf_a_clk_dig_in
*786 clknet_2_2__leaf_a_clk_dig_in
*787 cnb\.average_counter_r\[0\]
*788 cnb\.average_counter_r\[1\]
*789 cnb\.average_counter_r\[2\]
*790 cnb\.average_counter_r\[3\]
*791 cnb\.average_counter_r\[4\]
*792 cnb\.average_sum_r\[0\]
*793 cnb\.average_sum_r\[1\]
*794 cnb\.average_sum_r\[2\]
*795 cnb\.average_sum_r\[3\]
*796 cnb\.average_sum_r\[4\]
*797 cnb\.conv_finished_r
*798 net6
*799 net5
*800 net4
*801 cnb\.data_register_r\[3\]
*802 cnb\.data_register_r\[4\]
*803 cnb\.data_register_r\[5\]
*804 cnb\.data_register_r\[6\]
*805 cnb\.data_register_r\[7\]
*806 cnb\.data_register_r\[8\]
*807 cnb\.data_register_r\[9\]
*808 cnb\.is_holding_result_w
*809 cnb\.next_average_counter_w\[0\]
*810 cnb\.next_average_counter_w\[1\]
*811 cnb\.next_average_counter_w\[2\]
*812 cnb\.next_average_counter_w\[3\]
*813 cnb\.next_average_counter_w\[4\]
*814 cnb\.next_average_sum_w\[0\]
*815 cnb\.next_average_sum_w\[1\]
*816 cnb\.next_average_sum_w\[2\]
*817 cnb\.next_average_sum_w\[3\]
*818 cnb\.next_average_sum_w\[4\]
*819 cnb\.result_out\[0\]
*820 cnb\.result_out\[1\]
*821 cnb\.result_out\[2\]
*822 cnb\.result_out\[3\]
*823 cnb\.result_out\[4\]
*824 cnb\.result_out\[5\]
*825 cnb\.result_out\[6\]
*826 cnb\.result_out\[7\]
*827 cnb\.result_out\[8\]
*828 cnb\.result_out\[9\]
*829 cnb\.result_strobe_w
*830 cnb\.sampled_avg_control_r\[0\]
*831 cnb\.sampled_avg_control_r\[1\]
*832 cnb\.sampled_avg_control_r\[2\]
*833 cnb\.shift_register_r\[10\]
*834 cnb\.shift_register_r\[11\]
*835 cnb\.shift_register_r\[12\]
*836 cnb\.shift_register_r\[13\]
*837 cnb\.shift_register_r\[14\]
*838 cnb\.shift_register_r\[2\]
*839 cnb\.shift_register_r\[3\]
*840 cnb\.shift_register_r\[4\]
*841 cnb\.shift_register_r\[5\]
*842 cnb\.shift_register_r\[6\]
*843 cnb\.shift_register_r\[7\]
*844 cnb\.shift_register_r\[8\]
*845 cnb\.shift_register_r\[9\]
*846 osr\.data_valid_r
*847 osr\.is_last_sample
*848 osr\.next_result_w\[0\]
*849 osr\.next_result_w\[10\]
*850 osr\.next_result_w\[11\]
*851 osr\.next_result_w\[12\]
*852 osr\.next_result_w\[13\]
*853 osr\.next_result_w\[14\]
*854 osr\.next_result_w\[15\]
*855 osr\.next_result_w\[1\]
*856 osr\.next_result_w\[2\]
*857 osr\.next_result_w\[3\]
*858 osr\.next_result_w\[4\]
*859 osr\.next_result_w\[5\]
*860 osr\.next_result_w\[6\]
*861 osr\.next_result_w\[7\]
*862 osr\.next_result_w\[8\]
*863 osr\.next_result_w\[9\]
*864 osr\.next_sample_count_w\[0\]
*865 osr\.next_sample_count_w\[1\]
*866 osr\.next_sample_count_w\[2\]
*867 osr\.next_sample_count_w\[3\]
*868 osr\.next_sample_count_w\[4\]
*869 osr\.next_sample_count_w\[5\]
*870 osr\.next_sample_count_w\[6\]
*871 osr\.next_sample_count_w\[7\]
*872 osr\.next_sample_count_w\[8\]
*873 osr\.osr_mode_r\[0\]
*874 osr\.osr_mode_r\[1\]
*875 osr\.osr_mode_r\[2\]
*876 osr\.result_r\[0\]
*877 osr\.result_r\[10\]
*878 osr\.result_r\[11\]
*879 osr\.result_r\[12\]
*880 osr\.result_r\[13\]
*881 osr\.result_r\[14\]
*882 osr\.result_r\[15\]
*883 osr\.result_r\[1\]
*884 osr\.result_r\[2\]
*885 osr\.result_r\[3\]
*886 osr\.result_r\[4\]
*887 osr\.result_r\[5\]
*888 osr\.result_r\[6\]
*889 osr\.result_r\[7\]
*890 osr\.result_r\[8\]
*891 osr\.result_r\[9\]
*892 osr\.sample_count_r\[0\]
*893 osr\.sample_count_r\[1\]
*894 osr\.sample_count_r\[2\]
*895 osr\.sample_count_r\[3\]
*896 osr\.sample_count_r\[4\]
*897 osr\.sample_count_r\[5\]
*898 osr\.sample_count_r\[6\]
*899 osr\.sample_count_r\[7\]
*900 osr\.sample_count_r\[8\]
*901 net3
*902 net2
*903 net1
*905 a_nmatrix_col_out_n[10]
*906 a_nmatrix_col_out_n[11]
*907 a_nmatrix_col_out_n[12]
*908 a_nmatrix_col_out_n[1]
*909 a_nmatrix_col_out_n[2]
*910 a_nmatrix_col_out_n[3]
*911 a_nmatrix_col_out_n[4]
*912 a_nmatrix_col_out_n[5]
*913 a_nmatrix_col_out_n[6]
*914 a_nmatrix_col_out_n[7]
*915 a_nmatrix_col_out_n[8]
*916 a_nmatrix_col_out_n[9]
*917 a_nmatrix_row_out_n[0]
*918 a_nmatrix_row_out_n[1]
*919 a_nmatrix_row_out_n[2]
*920 a_nmatrix_row_out_n[3]
*921 a_nmatrix_row_out_n[4]
*922 a_nmatrix_row_out_n[5]
*923 a_nmatrix_row_out_n[6]
*924 a_nmatrix_row_out_n[7]
*925 a_nmatrix_row_out_n[8]
*926 a_nmatrix_row_out_n[9]
*927 a_nmatrix_rowoff_out_n[0]
*928 a_nmatrix_rowoff_out_n[1]
*929 a_nmatrix_rowoff_out_n[2]
*930 a_nmatrix_rowoff_out_n[3]
*931 a_nmatrix_rowoff_out_n[4]
*932 a_nmatrix_rowoff_out_n[5]
*933 a_nmatrix_rowoff_out_n[6]
*934 a_nmatrix_rowoff_out_n[7]
*935 a_nmatrix_rowoff_out_n[8]
*936 a_nmatrix_rowoff_out_n[9]
*937 a_nmatrix_rowon_out_n[0]
*938 a_nmatrix_rowon_out_n[1]
*939 a_nmatrix_rowon_out_n[2]
*940 a_nmatrix_rowon_out_n[3]
*941 a_nmatrix_rowon_out_n[4]
*942 a_nmatrix_rowon_out_n[5]
*943 a_nmatrix_rowon_out_n[6]
*944 a_nmatrix_rowon_out_n[7]
*945 a_nmatrix_rowon_out_n[8]
*946 a_nmatrix_rowon_out_n[9]
*947 a_pmatrix_bincap_out_n[0]
*948 a_pmatrix_bincap_out_n[1]
*949 a_pmatrix_bincap_out_n[2]
*950 a_pmatrix_col_out[0]
*951 a_pmatrix_col_out[10]
*952 a_pmatrix_col_out[11]
*953 a_pmatrix_col_out[12]
*954 a_pmatrix_col_out[1]
*955 a_pmatrix_col_out[2]
*956 a_pmatrix_col_out[3]
*957 a_pmatrix_col_out[4]
*958 a_pmatrix_col_out[5]
*959 a_pmatrix_col_out[6]
*960 a_pmatrix_col_out[7]
*961 a_pmatrix_col_out[8]
*962 a_pmatrix_col_out[9]
*963 a_pmatrix_col_out_n[0]
*964 a_pmatrix_col_out_n[10]
*965 a_pmatrix_col_out_n[11]
*966 a_pmatrix_col_out_n[12]
*967 a_pmatrix_col_out_n[1]
*968 a_pmatrix_col_out_n[2]
*969 a_pmatrix_col_out_n[3]
*970 a_pmatrix_col_out_n[4]
*971 a_pmatrix_col_out_n[5]
*972 a_pmatrix_col_out_n[6]
*973 a_pmatrix_col_out_n[7]
*974 a_pmatrix_col_out_n[8]
*975 a_pmatrix_col_out_n[9]
*976 a_pmatrix_row_out_n[0]
*977 a_pmatrix_row_out_n[1]
*978 a_pmatrix_row_out_n[2]
*979 a_pmatrix_row_out_n[3]
*980 a_pmatrix_row_out_n[4]
*981 a_pmatrix_row_out_n[5]
*982 a_pmatrix_row_out_n[6]
*983 a_pmatrix_row_out_n[7]
*984 a_pmatrix_row_out_n[8]
*985 a_pmatrix_row_out_n[9]
*986 a_pmatrix_rowoff_out_n[0]
*987 a_pmatrix_rowoff_out_n[1]
*988 a_pmatrix_rowoff_out_n[2]
*989 a_pmatrix_rowoff_out_n[3]
*990 a_pmatrix_rowoff_out_n[4]
*991 a_pmatrix_rowoff_out_n[5]
*992 a_pmatrix_rowoff_out_n[6]
*993 a_pmatrix_rowoff_out_n[7]
*994 a_pmatrix_rowoff_out_n[8]
*995 a_pmatrix_rowoff_out_n[9]
*996 a_pmatrix_rowon_out_n[0]
*997 a_pmatrix_rowon_out_n[1]
*998 a_pmatrix_rowon_out_n[2]
*999 a_pmatrix_rowon_out_n[3]
*1000 a_pmatrix_rowon_out_n[4]
*1001 a_pmatrix_rowon_out_n[5]
*1002 a_pmatrix_rowon_out_n[6]
*1003 a_pmatrix_rowon_out_n[7]
*1004 a_pmatrix_rowon_out_n[8]
*1005 a_pmatrix_rowon_out_n[9]
*1006 a_result_out[2]
*1007 a_result_out[3]
*1008 a_result_out[4]
*1009 a_result_out[5]
*1010 a_result_out[6]
*1011 a_result_out[7]
*1012 a_result_out[8]
*1013 a_result_out[9]
*1014 a_sample_matrix_out
*1015 a_sample_matrix_out_n
*1016 a_sample_switch_out
*1017 a_sample_switch_out_n
*1018 _0627_
*1019 _0628_
*1020 _0629_
*1021 _0630_
*1022 _0631_
*1023 _0632_
*1024 _0633_
*1025 _0634_
*1026 _0635_
*1027 _0636_
*1028 _0637_
*1029 _0638_
*1030 _0639_
*1031 _0640_
*1032 _0641_
*1033 _0642_
*1034 output29
*1035 _0644_
*1036 _0645_
*1037 _0646_
*1038 _0647_
*1039 _0648_
*1040 _0649_
*1041 _0650_
*1042 _0651_
*1043 _0652_
*1044 _0653_
*1045 _0654_
*1046 _0655_
*1047 _0656_
*1048 _0657_
*1049 _0658_
*1050 _0659_
*1051 _0660_
*1052 _0661_
*1053 _0662_
*1054 _0663_
*1055 _0664_
*1056 _0665_
*1057 _0666_
*1058 _0667_
*1059 _0668_
*1060 _0669_
*1061 _0670_
*1062 _0671_
*1063 _0672_
*1064 _0673_
*1065 _0674_
*1066 _0675_
*1067 _0676_
*1068 _0677_
*1069 _0678_
*1070 _0679_
*1071 _0680_
*1072 _0681_
*1073 _0682_
*1074 _0683_
*1075 _0684_
*1076 _0685_
*1077 _0686_
*1078 _0687_
*1079 _0688_
*1080 _0689_
*1081 _0690_
*1082 _0691_
*1083 _0692_
*1084 _0693_
*1085 output28
*1086 _0695_
*1087 _0696_
*1088 _0697_
*1089 _0698_
*1090 _0699_
*1091 _0700_
*1092 _0701_
*1093 _0702_
*1094 _0703_
*1095 _0704_
*1096 _0705_
*1097 _0706_
*1098 _0707_
*1099 _0708_
*1100 _0709_
*1101 _0710_
*1102 _0711_
*1103 _0712_
*1104 _0713_
*1105 _0714_
*1106 _0715_
*1107 _0716_
*1108 output27
*1109 _0718_
*1110 output26
*1111 _0720_
*1112 _0721_
*1113 _0722_
*1114 _0723_
*1115 _0724_
*1116 _0725_
*1117 _0726_
*1118 _0727_
*1119 _0728_
*1120 _0729_
*1121 _0730_
*1122 output25
*1123 _0732_
*1124 _0733_
*1125 _0734_
*1126 _0735_
*1127 _0736_
*1128 _0737_
*1129 _0738_
*1130 _0739_
*1131 _0740_
*1132 _0741_
*1133 _0742_
*1134 _0743_
*1135 _0744_
*1136 _0745_
*1137 _0746_
*1138 _0747_
*1139 _0748_
*1140 _0749_
*1141 _0750_
*1142 _0751_
*1143 _0752_
*1144 _0753_
*1145 _0754_
*1146 _0755_
*1147 _0756_
*1148 _0757_
*1149 _0758_
*1150 _0759_
*1151 _0760_
*1152 _0761_
*1153 _0762_
*1154 _0763_
*1155 _0764_
*1156 _0765_
*1157 _0766_
*1158 _0767_
*1159 _0768_
*1160 _0769_
*1161 _0770_
*1162 _0771_
*1163 _0772_
*1164 _0773_
*1165 _0774_
*1166 _0775_
*1167 _0776_
*1168 _0777_
*1169 _0778_
*1170 _0779_
*1171 _0780_
*1172 _0781_
*1173 _0782_
*1174 _0783_
*1175 _0784_
*1176 _0785_
*1177 _0786_
*1178 _0787_
*1179 _0788_
*1180 _0789_
*1181 _0790_
*1182 _0791_
*1183 _0792_
*1184 _0793_
*1185 _0794_
*1186 _0795_
*1187 output24
*1188 _0797_
*1189 _0798_
*1190 _0799_
*1191 _0800_
*1192 _0801_
*1193 _0802_
*1194 _0803_
*1195 _0804_
*1196 _0805_
*1197 _0806_
*1198 _0807_
*1199 _0808_
*1200 _0809_
*1201 _0810_
*1202 _0811_
*1203 _0812_
*1204 _0813_
*1205 output23
*1206 _0815_
*1207 _0816_
*1208 _0817_
*1209 _0818_
*1210 _0819_
*1211 _0820_
*1212 _0821_
*1213 _0822_
*1214 _0823_
*1215 _0824_
*1216 _0825_
*1217 _0826_
*1218 _0827_
*1219 _0828_
*1220 _0829_
*1221 _0830_
*1222 _0831_
*1223 _0832_
*1224 _0833_
*1225 _0834_
*1226 _0835_
*1227 _0836_
*1228 _0837_
*1229 _0838_
*1230 _0839_
*1231 _0840_
*1232 _0841_
*1233 _0842_
*1234 _0843_
*1235 _0844_
*1236 _0845_
*1237 _0846_
*1238 _0847_
*1239 output22
*1240 _0849_
*1241 _0850_
*1242 _0851_
*1243 _0852_
*1244 _0853_
*1245 _0854_
*1246 _0855_
*1247 _0856_
*1248 _0857_
*1249 output21
*1250 _0859_
*1251 _0860_
*1252 _0861_
*1253 _0862_
*1254 _0863_
*1255 _0864_
*1256 _0865_
*1257 _0866_
*1258 _0867_
*1259 _0868_
*1260 output20
*1261 _0870_
*1262 _0871_
*1263 _0872_
*1264 _0873_
*1265 _0874_
*1266 _0875_
*1267 _0876_
*1268 output19
*1269 _0878_
*1270 output18
*1271 output17
*1272 _0881_
*1273 _0882_
*1274 _0883_
*1275 _0884_
*1276 _0885_
*1277 _0886_
*1278 output16
*1279 _0888_
*1280 _0889_
*1281 _0890_
*1282 output15
*1283 _0892_
*1284 _0893_
*1285 _0894_
*1286 _0895_
*1287 _0896_
*1288 _0897_
*1289 _0898_
*1290 _0899_
*1291 _0900_
*1292 _0901_
*1293 _0902_
*1294 _0903_
*1295 _0904_
*1296 _0905_
*1297 _0906_
*1298 _0907_
*1299 _0908_
*1300 _0909_
*1301 _0910_
*1302 _0911_
*1303 _0912_
*1304 _0913_
*1305 _0914_
*1306 _0915_
*1307 _0916_
*1308 _0917_
*1309 _0918_
*1310 _0919_
*1311 _0920_
*1312 _0921_
*1313 _0922_
*1314 _0923_
*1315 _0924_
*1316 _0925_
*1317 _0926_
*1318 _0927_
*1319 _0928_
*1320 _0929_
*1321 _0930_
*1322 _0931_
*1323 _0932_
*1324 _0933_
*1325 _0934_
*1326 _0935_
*1327 _0936_
*1328 _0937_
*1329 _0938_
*1330 output14
*1331 _0940_
*1332 _0941_
*1333 _0942_
*1334 _0943_
*1335 _0944_
*1336 _0945_
*1337 _0946_
*1338 _0947_
*1339 _0948_
*1340 _0949_
*1341 _0950_
*1342 _0951_
*1343 _0952_
*1344 _0953_
*1345 _0954_
*1346 _0955_
*1347 _0956_
*1348 _0957_
*1349 _0958_
*1350 _0959_
*1351 _0960_
*1352 _0961_
*1353 _0962_
*1354 _0963_
*1355 _0964_
*1356 _0965_
*1357 _0966_
*1358 _0967_
*1359 _0968_
*1360 _0969_
*1361 _0970_
*1362 _0971_
*1363 _0972_
*1364 _0973_
*1365 _0974_
*1366 _0975_
*1367 _0976_
*1368 _0977_
*1369 _0978_
*1370 _0979_
*1371 _0980_
*1372 _0981_
*1373 _0982_
*1374 _0983_
*1375 output13
*1376 _0985_
*1377 _0986_
*1378 _0987_
*1379 _0988_
*1380 _0989_
*1381 _0990_
*1382 _0991_
*1383 _0992_
*1384 _0993_
*1385 _0994_
*1386 _0995_
*1387 _0996_
*1388 _0997_
*1389 _0998_
*1390 _0999_
*1391 _1000_
*1392 _1001_
*1393 _1002_
*1394 _1003_
*1395 _1004_
*1396 _1005_
*1397 _1006_
*1398 _1007_
*1399 _1008_
*1400 _1009_
*1401 _1010_
*1402 _1011_
*1403 _1012_
*1404 _1013_
*1405 _1014_
*1406 _1015_
*1407 _1016_
*1408 _1017_
*1409 _1018_
*1410 _1019_
*1411 _1020_
*1412 _1021_
*1413 _1022_
*1414 _1023_
*1415 _1024_
*1416 _1025_
*1417 _1026_
*1418 _1027_
*1419 _1028_
*1420 _1029_
*1421 _1030_
*1422 _1031_
*1423 _1032_
*1424 output12
*1425 _1034_
*1426 _1035_
*1427 _1036_
*1428 _1037_
*1429 _1038_
*1430 _1039_
*1431 _1040_
*1432 _1041_
*1433 _1042_
*1434 _1043_
*1435 _1044_
*1436 _1045_
*1437 _1046_
*1438 _1047_
*1439 _1048_
*1440 _1049_
*1441 _1050_
*1442 _1051_
*1443 _1052_
*1444 _1053_
*1445 _1054_
*1446 _1055_
*1447 _1056_
*1448 _1057_
*1449 _1058_
*1450 _1059_
*1451 _1060_
*1452 _1061_
*1453 _1062_
*1454 _1063_
*1455 _1064_
*1456 _1065_
*1457 _1066_
*1458 _1067_
*1459 _1068_
*1460 _1069_
*1461 _1070_
*1462 _1071_
*1463 _1072_
*1464 _1073_
*1465 _1074_
*1466 _1075_
*1467 _1076_
*1468 _1077_
*1469 _1078_
*1470 _1079_
*1471 _1080_
*1472 _1081_
*1473 _1082_
*1474 _1083_
*1475 _1084_
*1476 _1085_
*1477 _1086_
*1478 _1087_
*1479 _1088_
*1480 _1089_
*1481 _1090_
*1482 _1091_
*1483 _1092_
*1484 _1093_
*1485 _1094_
*1486 _1095_
*1487 _1096_
*1488 _1097_
*1489 _1098_
*1490 _1099_
*1491 _1100_
*1492 _1101_
*1493 _1102_
*1494 _1103_
*1495 _1104_
*1496 _1105_
*1497 _1106_
*1498 _1107_
*1499 _1108_
*1500 _1109_
*1501 _1110_
*1502 _1111_
*1503 _1112_
*1504 _1113_
*1505 _1114_
*1506 _1115_
*1507 _1116_
*1508 output11
*1509 _1118_
*1510 _1119_
*1511 _1120_
*1512 _1121_
*1513 _1122_
*1514 _1123_
*1515 _1124_
*1516 _1125_
*1517 _1126_
*1518 _1127_
*1519 _1128_
*1520 _1129_
*1521 _1130_
*1522 _1131_
*1523 _1132_
*1524 _1133_
*1525 _1134_
*1526 _1135_
*1527 _1136_
*1528 _1137_
*1529 _1138_
*1530 _1139_
*1531 _1140_
*1532 _1141_
*1533 _1142_
*1534 _1143_
*1535 _1144_
*1536 _1145_
*1537 _1146_
*1538 _1147_
*1539 input10
*1540 _1149_
*1541 _1150_
*1542 _1151_
*1543 _1152_
*1544 _1153_
*1545 _1154_
*1546 _1155_
*1547 _1156_
*1548 _1157_
*1549 _1158_
*1550 _1159_
*1551 _1160_
*1552 _1161_
*1553 _1162_
*1554 _1163_
*1555 _1164_
*1556 _1165_
*1557 _1166_
*1558 _1167_
*1559 _1168_
*1560 _1169_
*1561 _1170_
*1562 _1171_
*1563 _1172_
*1564 _1173_
*1565 _1174_
*1566 _1175_
*1567 _1176_
*1568 _1177_
*1569 _1178_
*1570 _1179_
*1571 _1180_
*1572 _1181_
*1573 _1182_
*1574 _1183_
*1575 _1184_
*1576 _1185_
*1577 _1186_
*1578 _1187_
*1579 _1188_
*1580 _1189_
*1581 _1190_
*1582 _1191_
*1583 input9
*1584 _1193_
*1585 _1194_
*1586 _1195_
*1587 _1196_
*1588 _1197_
*1589 _1198_
*1590 _1199_
*1591 _1200_
*1592 _1201_
*1593 _1202_
*1594 _1203_
*1595 _1204_
*1596 _1205_
*1597 _1206_
*1598 _1207_
*1599 _1208_
*1600 _1209_
*1601 clkbuf_2_0__f_a_clk_dig_in
*1602 _1211_
*1603 _1212_
*1604 _1213_
*1605 _1214_
*1606 _1215_
*1607 input8
*1608 _1217_
*1609 _1218_
*1610 _1219_
*1611 _1220_
*1612 _1221_
*1613 _1222_
*1614 _1223_
*1615 _1224_
*1616 _1225_
*1617 _1226_
*1618 _1227_
*1619 _1228_
*1620 _1229_
*1621 _1230_
*1622 _1231_
*1623 _1232_
*1624 _1233_
*1625 _1234_
*1626 _1235_
*1627 _1236_
*1628 _1237_
*1629 _1238_
*1630 _1239_
*1631 _1240_
*1632 _1241_
*1633 _1242_
*1634 _1243_
*1635 _1244_
*1636 _1245_
*1637 _1246_
*1638 _1247_
*1639 _1248_
*1640 _1249_
*1641 _1250_
*1642 _1251_
*1643 _1252_
*1644 _1253_
*1645 _1254_
*1646 _1255_
*1647 _1256_
*1648 _1257_
*1649 _1258_
*1650 _1259_
*1651 _1260_
*1652 _1261_
*1653 _1262_
*1654 _1263_
*1655 _1264_
*1656 _1265_
*1657 _1266_
*1658 _1267_
*1659 _1268_
*1660 _1269_
*1661 _1270_
*1662 _1271_
*1663 _1272_
*1664 _1273_
*1665 _1274_
*1666 _1275_
*1667 _1276_
*1668 _1277_
*1669 _1278_
*1670 _1279_
*1671 _1280_
*1672 _1281_
*1673 _1282_
*1674 _1283_
*1675 _1284_
*1676 _1285_
*1677 _1286_
*1678 _1287_
*1679 clkbuf_0_a_clk_dig_in
*1680 _1289_
*1681 _1290_
*1682 _1291_
*1683 _1292_
*1684 _1293_
*1685 _1294_
*1686 _1295_
*1687 _1296_
*1688 _1297_
*1689 _1298_
*1690 _1299_
*1691 _1300_
*1692 _1301_
*1693 _1302_
*1694 _1303_
*1695 _1304_
*1696 _1305_
*1697 _1306_
*1698 _1307_
*1699 _1308_
*1700 _1309_
*1701 _1310_
*1702 _1311_
*1703 _1312_
*1704 _1313_
*1705 _1314_
*1706 _1315_
*1707 _1316_
*1708 _1317_
*1709 _1318_
*1710 _1319_
*1711 _1320_
*1712 _1321_
*1713 _1322_
*1714 _1323_
*1715 _1324_
*1716 _1325_
*1717 _1326_
*1718 _1327_
*1719 _1328_
*1720 _1329_
*1721 _1330_
*1722 _1331_
*1723 _1332_
*1724 _1333_
*1725 _1334_
*1726 _1335_
*1727 _1336_
*1728 _1337_
*1729 _1338_
*1730 _1339_
*1731 _1340_
*1732 _1341_
*1733 _1342_
*1734 _1343_
*1735 _1344_
*1736 _1345_
*1737 _1346_
*1738 _1347_
*1739 _1348_
*1740 _1349_
*1741 _1350_
*1742 _1351_
*1743 _1352_
*1744 _1353_
*1745 _1354_
*1746 _1355_
*1747 _1356_
*1748 _1357_
*1749 _1358_
*1750 _1359_
*1751 _1360_
*1752 _1361_
*1753 _1362_
*1754 _1363_
*1755 _1364_
*1756 _1365_
*1757 _1366_
*1758 _1367_
*1759 _1368_
*1760 _1369_
*1761 _1370_
*1762 _1371_
*1763 _1372_
*1764 PHY_EDGE_ROW_0_Right_0
*1765 _1375__4
*1766 input7
*1767 input6
*1768 input5
*1769 input4
*1770 input3
*1771 input2
*1772 input1
*1773 clkbuf_2_3__f_a_clk_dig_in
*1774 clkbuf_2_1__f_a_clk_dig_in
*1775 clkbuf_2_2__f_a_clk_dig_in
*1776 cnb\.average_counter_r\[0\]\$_DFF_PN1_
*1777 cnb\.average_counter_r\[1\]\$_DFF_PN0_
*1778 cnb\.average_counter_r\[2\]\$_DFF_PN0_
*1779 cnb\.average_counter_r\[3\]\$_DFF_PN0_
*1780 cnb\.average_counter_r\[4\]\$_DFF_PN0_
*1781 cnb\.average_sum_r\[0\]\$_DFF_PN0_
*1782 cnb\.average_sum_r\[1\]\$_DFF_PN0_
*1783 cnb\.average_sum_r\[2\]\$_DFF_PN0_
*1784 cnb\.average_sum_r\[3\]\$_DFF_PN0_
*1785 cnb\.average_sum_r\[4\]\$_DFF_PN0_
*1786 cnb\.conv_finished_r\$_DFF_PN0_
*1787 cnb\.data_register_r\[0\]\$_DFFE_PN0P_
*1788 cnb\.data_register_r\[1\]\$_DFFE_PN0P_
*1789 cnb\.data_register_r\[2\]\$_DFFE_PN0P_
*1790 cnb\.data_register_r\[3\]\$_DFFE_PN0P_
*1791 cnb\.data_register_r\[4\]\$_DFFE_PN0P_
*1792 cnb\.data_register_r\[5\]\$_DFFE_PN0P_
*1793 cnb\.data_register_r\[6\]\$_DFFE_PN0P_
*1794 cnb\.data_register_r\[7\]\$_DFFE_PN0P_
*1795 cnb\.data_register_r\[8\]\$_DFFE_PN0P_
*1796 cnb\.data_register_r\[9\]\$_DFFE_PN1P_
*1797 cnb\.result_out\[0\]\$_DFFE_PN0P_
*1798 cnb\.result_out\[1\]\$_DFFE_PN0P_
*1799 cnb\.result_out\[2\]\$_DFFE_PN0P_
*1800 cnb\.result_out\[3\]\$_DFFE_PN0P_
*1801 cnb\.result_out\[4\]\$_DFFE_PN0P_
*1802 cnb\.result_out\[5\]\$_DFFE_PN0P_
*1803 cnb\.result_out\[6\]\$_DFFE_PN0P_
*1804 cnb\.result_out\[7\]\$_DFFE_PN0P_
*1805 cnb\.result_out\[8\]\$_DFFE_PN0P_
*1806 cnb\.result_out\[9\]\$_DFFE_PN0P_
*1807 cnb\.sampled_avg_control_r\[0\]\$_DFFE_PN0P_
*1808 cnb\.sampled_avg_control_r\[1\]\$_DFFE_PN0P_
*1809 cnb\.sampled_avg_control_r\[2\]\$_DFFE_PN0P_
*1810 cnb\.shift_register_r\[0\]\$_DFFE_PN1N_
*1811 cnb\.shift_register_r\[10\]\$_DFFE_PN0N_
*1812 cnb\.shift_register_r\[11\]\$_DFFE_PN0N_
*1813 cnb\.shift_register_r\[12\]\$_DFFE_PN0N_
*1814 cnb\.shift_register_r\[13\]\$_DFFE_PN0N_
*1815 cnb\.shift_register_r\[14\]\$_DFFE_PN0N_
*1816 cnb\.shift_register_r\[1\]\$_DFFE_PN0N_
*1817 cnb\.shift_register_r\[2\]\$_DFFE_PN0N_
*1818 cnb\.shift_register_r\[3\]\$_DFFE_PN0N_
*1819 cnb\.shift_register_r\[4\]\$_DFFE_PN0N_
*1820 cnb\.shift_register_r\[5\]\$_DFFE_PN0N_
*1821 cnb\.shift_register_r\[6\]\$_DFFE_PN0N_
*1822 cnb\.shift_register_r\[7\]\$_DFFE_PN0N_
*1823 cnb\.shift_register_r\[8\]\$_DFFE_PN0N_
*1824 cnb\.shift_register_r\[9\]\$_DFFE_PN0N_
*1825 osr\.data_valid_r\$_DFF_PN0_
*1826 osr\.osr_mode_r\[0\]\$_DFFE_PN0P_
*1827 osr\.osr_mode_r\[1\]\$_DFFE_PN0P_
*1828 osr\.osr_mode_r\[2\]\$_DFFE_PN0P_
*1829 osr\.output_r\[2\]\$_DFFE_PN0P_
*1830 osr\.output_r\[3\]\$_DFFE_PN0P_
*1831 osr\.output_r\[4\]\$_DFFE_PN0P_
*1832 osr\.output_r\[5\]\$_DFFE_PN0P_
*1833 osr\.output_r\[6\]\$_DFFE_PN0P_
*1834 osr\.output_r\[7\]\$_DFFE_PN0P_
*1835 osr\.output_r\[8\]\$_DFFE_PN0P_
*1836 osr\.output_r\[9\]\$_DFFE_PN0P_
*1837 osr\.result_r\[0\]\$_DFF_PN0_
*1838 osr\.result_r\[10\]\$_DFF_PN0_
*1839 osr\.result_r\[11\]\$_DFF_PN0_
*1840 osr\.result_r\[12\]\$_DFF_PN0_
*1841 osr\.result_r\[13\]\$_DFF_PN0_
*1842 osr\.result_r\[14\]\$_DFF_PN0_
*1843 osr\.result_r\[15\]\$_DFF_PN0_
*1844 osr\.result_r\[1\]\$_DFF_PN0_
*1845 osr\.result_r\[2\]\$_DFF_PN0_
*1846 osr\.result_r\[3\]\$_DFF_PN0_
*1847 osr\.result_r\[4\]\$_DFF_PN0_
*1848 osr\.result_r\[5\]\$_DFF_PN0_
*1849 osr\.result_r\[6\]\$_DFF_PN0_
*1850 osr\.result_r\[7\]\$_DFF_PN0_
*1851 osr\.result_r\[8\]\$_DFF_PN0_